/*--------------------------------*- C++ -*----------------------------------*\
| =========                 |                                                 |
| \\      /  F ield         | OpenFOAM Extend Project: Open Source CFD        |
|  \\    /   O peration     | Version:  1.6-ext                               |
|   \\  /    A nd           | Web:      www.extend-project.de                 |
|    \\/     M anipulation  |                                                 |
\*---------------------------------------------------------------------------*/
FoamFile
{
    version     2.0;
    format      ascii;
    class       dictionary;
    location    "system";
    object      fvSchemes;
}
// * * * * * * * * * * * * * * * * * * * * * * * * * * * * * * * * * * * * * //

d2dt2Schemes
{
    default     Euler;
}

ddtSchemes
{
    default     Euler;
}

gradSchemes
{
    default     leastSquares;
}

divSchemes
{
    default     Gauss linear;
}

laplacianSchemes
{
    default         Gauss linear newSkewCorrected 1;
}

snGradSchemes
{
    default         newSkewCorrected 1;
}

interpolationSchemes
{
    default           linear;
}

// ************************************************************************* //
