/*--------------------------------*- C++ -*----------------------------------*\
  =========                 |
  \\      /  F ield         | OpenFOAM: The Open Source CFD Toolbox
   \\    /   O peration     | Website:  https://openfoam.org
    \\  /    A nd           | Version:  8
     \\/     M anipulation  |
\*---------------------------------------------------------------------------*/
FoamFile
{
    version     2.0;
    format      ascii;
    class       polyBoundaryMesh;
    location    "constant/polyMesh";
    object      boundary;
}
// * * * * * * * * * * * * * * * * * * * * * * * * * * * * * * * * * * * * * //

6
(
    dieWall
    {
        type            wall;
        inGroups        List<word> 1(wall);
        nFaces          100;
        startFace       895;
    }
    outlet
    {
        type            patch;
        nFaces          5;
        startFace       995;
    }
    Wire
    {
        type            wall;
        inGroups        List<word> 1(wall);
        nFaces          100;
        startFace       1000;
    }
    inlet
    {
        type            patch;
        nFaces          5;
        startFace       1100;
    }
    back
    {
        type            wedge;
        inGroups        List<word> 1(wedge);
        nFaces          500;
        startFace       1105;
    }
    front
    {
        type            wedge;
        inGroups        List<word> 1(wedge);
        nFaces          500;
        startFace       1605;
    }
)

// ************************************************************************* //
