/*--------------------------------*- C++ -*----------------------------------*\
  =========                 |
  \\      /  F ield         | OpenFOAM: The Open Source CFD Toolbox
   \\    /   O peration     | Website:  https://openfoam.org
    \\  /    A nd           | Version:  8
     \\/     M anipulation  |
\*---------------------------------------------------------------------------*/
FoamFile
{
    version     2.0;
    format      ascii;
    class       polyBoundaryMesh;
    location    "constant/polyMesh";
    object      boundary;
}
// * * * * * * * * * * * * * * * * * * * * * * * * * * * * * * * * * * * * * //

6
(
    dieWall
    {
        type            wall;
        inGroups        List<word> 1(wall);
        nFaces          100;
        startFace       1691;
    }
    outlet
    {
        type            patch;
        nFaces          9;
        startFace       1791;
    }
    Wire
    {
        type            wall;
        inGroups        List<word> 1(wall);
        nFaces          100;
        startFace       1800;
    }
    inlet
    {
        type            patch;
        nFaces          9;
        startFace       1900;
    }
    back
    {
        type            wedge;
        inGroups        List<word> 1(wedge);
        nFaces          900;
        startFace       1909;
    }
    front
    {
        type            wedge;
        inGroups        List<word> 1(wedge);
        nFaces          900;
        startFace       2809;
    }
)

// ************************************************************************* //
