/*--------------------------------*- C++ -*----------------------------------*\
| =========                 |                                                 |
| \\      /  F ield         | foam-extend: Open Source CFD                    |
|  \\    /   O peration     | Version:     4.1-20200408                       |
|   \\  /    A nd           | Web:         http://www.foam-extend.org         |
|    \\/     M anipulation  |                                                 |
\*---------------------------------------------------------------------------*/
FoamFile
{
    version     2.0;
    format      ascii;
    class       polyBoundaryMesh;
    location    "0.0110000/polyMesh";
    object      boundary;
}
// * * * * * * * * * * * * * * * * * * * * * * * * * * * * * * * * * * * * * //

5
(
    wireUpstream
    {
        type            patch;
        physicalType    patch;
        nFaces          16;
        startFace       3766;
    }
    wireDownstream
    {
        type            patch;
        physicalType    patch;
        nFaces          16;
        startFace       3782;
    }
    wireTopContact
    {
        type            patch;
        physicalType    patch;
        nFaces          122;
        startFace       3798;
    }
    front
    {
        type            wedge;
        nFaces          1952;
        startFace       3920;
    }
    back
    {
        type            wedge;
        nFaces          1952;
        startFace       5872;
    }
)


// ************************************************************************* //
