/*--------------------------------*- C++ -*----------------------------------*\
| =========                 |                                                 |
| \\      /  F ield         | OpenFOAM Extend Project: Open Source CFD        |
|  \\    /   O peration     | Version:  1.6-ext                               |
|   \\  /    A nd           | Web:      www.extend-project.de                 |
|    \\/     M anipulation  |                                                 |
\*---------------------------------------------------------------------------*/
FoamFile
{
    version     2.0;
    format      ascii;
    class       dictionary;
    location    "system";
    object      controlDict;
}
// * * * * * * * * * * * * * * * * * * * * * * * * * * * * * * * * * * * * * //

application    coconut_plasticNonLinSolidFoam;

startFrom       startTime;

startTime    0.0;

stopAt          endTime;

endTime    1e15;

deltaT    0.0001;

writeControl    timeStep;

writeInterval   1;

cycleWrite      0;

writeFormat     ascii;

writePrecision  6;

writeCompression uncompressed; 

timeFormat      fixed;

timePrecision    5;

runTimeModifiable no;

adjustTimeStep  no;

// ************************************************************************* //
// CoCoNuT function objects
boundary_names (wireTopContact );

