/*--------------------------------*- C++ -*----------------------------------*\
  =========                 |
  \\      /  F ield         | OpenFOAM: The Open Source CFD Toolbox
   \\    /   O peration     | Website:  https://openfoam.org
    \\  /    A nd           | Version:  8
     \\/     M anipulation  |
\*---------------------------------------------------------------------------*/
FoamFile
{
    version     2.0;
    format      ascii;
    class       pointVectorField;
    object      pointDisplacement;
}
// * * * * * * * * * * * * * * * * * * * * * * * * * * * * * * * * * * * * * //

dimensions      [0 1 0 0 0 0 0];

internalField   uniform (0 0 0);

boundaryField
{
    dieWall
    {
        type            timeVaryingMappedFixedValue;
	offset		(0 0 0);
	setAverage	off;
        value		uniform (0 0 0);
    }
    outlet
    {
        type            slip;
    }
    inlet
    {
        type            slip;
    }
    Wire
    {
        type            fixedValue;
        value    	nonuniform List<vector> 
202
(( 0.000000000000000e+00 -1.087008031531292e-07  4.745979560578181e-09)
 ( 0.000000000000000e+00 -1.114429432347368e-07  4.865703982128393e-09)
 ( 0.000000000000000e+00 -1.114429432347368e-07 -4.865703982128393e-09)
 ( 0.000000000000000e+00 -1.087008031531292e-07 -4.745979560578181e-09)
 ( 0.000000000000000e+00 -1.164321646428641e-07  5.083538093186564e-09)
 ( 0.000000000000000e+00 -1.164321646428641e-07 -5.083538093186564e-09)
 ( 0.000000000000000e+00 -1.226626800602152e-07  5.355568271114139e-09)
 ( 0.000000000000000e+00 -1.226626800602152e-07 -5.355568271114139e-09)
 ( 0.000000000000000e+00 -1.300519411176971e-07  5.678190376280942e-09)
 ( 0.000000000000000e+00 -1.300519411176971e-07 -5.678190376280942e-09)
 ( 0.000000000000000e+00 -1.381769285533068e-07  6.032934988839477e-09)
 ( 0.000000000000000e+00 -1.381769285533068e-07 -6.032934988839477e-09)
 ( 0.000000000000000e+00 -1.469574636708179e-07  6.416301431311317e-09)
 ( 0.000000000000000e+00 -1.469574636708179e-07 -6.416301431311317e-09)
 ( 0.000000000000000e+00 -1.563541121073057e-07  6.826567962228168e-09)
 ( 0.000000000000000e+00 -1.563541121073057e-07 -6.826567962228168e-09)
 ( 0.000000000000000e+00 -1.664314662181049e-07  7.266554744728631e-09)
 ( 0.000000000000000e+00 -1.664314662181049e-07 -7.266554744728631e-09)
 ( 0.000000000000000e+00 -1.771310457710653e-07  7.733708476735518e-09)
 ( 0.000000000000000e+00 -1.771310457710653e-07 -7.733708476735518e-09)
 ( 0.000000000000000e+00 -1.883077520108734e-07  8.221694009776993e-09)
 ( 0.000000000000000e+00 -1.883077520108734e-07 -8.221694009776993e-09)
 ( 0.000000000000000e+00 -1.999441782130891e-07  8.729751349851043e-09)
 ( 0.000000000000000e+00 -1.999441782130891e-07 -8.729751349851043e-09)
 ( 0.000000000000000e+00 -2.120427869263299e-07  9.257988014152275e-09)
 ( 0.000000000000000e+00 -2.120427869263299e-07 -9.257988014152275e-09)
 ( 0.000000000000000e+00 -2.247209318839628e-07  9.811527777333329e-09)
 ( 0.000000000000000e+00 -2.247209318839628e-07 -9.811527777333329e-09)
 ( 0.000000000000000e+00 -2.378052737416316e-07  1.038280248017646e-08)
 ( 0.000000000000000e+00 -2.378052737416316e-07 -1.038280248017646e-08)
 ( 0.000000000000000e+00 -2.512866645178944e-07  1.097141271318621e-08)
 ( 0.000000000000000e+00 -2.512866645178944e-07 -1.097141271318621e-08)
 ( 0.000000000000000e+00 -2.651574034768519e-07  1.157702225497213e-08)
 ( 0.000000000000000e+00 -2.651574034768519e-07 -1.157702225497213e-08)
 ( 0.000000000000000e+00 -2.795279089290240e-07  1.220445207308588e-08)
 ( 0.000000000000000e+00 -2.795279089290240e-07 -1.220445207308588e-08)
 ( 0.000000000000000e+00 -2.943368112635344e-07  1.285102271245067e-08)
 ( 0.000000000000000e+00 -2.943368112635344e-07 -1.285102271245067e-08)
 ( 0.000000000000000e+00 -3.095379920325129e-07  1.351472059814701e-08)
 ( 0.000000000000000e+00 -3.095379920325129e-07 -1.351472059814701e-08)
 ( 0.000000000000000e+00 -3.251358047982988e-07  1.419573581081164e-08)
 ( 0.000000000000000e+00 -3.251358047982988e-07 -1.419573581081164e-08)
 ( 0.000000000000000e+00 -3.411902378669288e-07  1.489668749644963e-08)
 ( 0.000000000000000e+00 -3.411902378669288e-07 -1.489668749644963e-08)
 ( 0.000000000000000e+00 -3.577862470009150e-07  1.562128490375774e-08)
 ( 0.000000000000000e+00 -3.577862470009150e-07 -1.562128490375774e-08)
 ( 0.000000000000000e+00 -3.748234871042556e-07  1.636514687122831e-08)
 ( 0.000000000000000e+00 -3.748234871042556e-07 -1.636514687122831e-08)
 ( 0.000000000000000e+00 -3.923238026397005e-07  1.712922714870232e-08)
 ( 0.000000000000000e+00 -3.923238026397005e-07 -1.712922714870232e-08)
 ( 0.000000000000000e+00 -4.103110187110903e-07  1.791456596267834e-08)
 ( 0.000000000000000e+00 -4.103110187110903e-07 -1.791456596267834e-08)
 ( 0.000000000000000e+00 -4.290205894588371e-07  1.873144346293848e-08)
 ( 0.000000000000000e+00 -4.290205894588371e-07 -1.873144346293848e-08)
 ( 0.000000000000000e+00 -4.483195340883769e-07  1.957405358260335e-08)
 ( 0.000000000000000e+00 -4.483195340883769e-07 -1.957405358260335e-08)
 ( 0.000000000000000e+00 -4.682257413154646e-07  2.044317735987023e-08)
 ( 0.000000000000000e+00 -4.682257413154646e-07 -2.044317735987023e-08)
 ( 0.000000000000000e+00 -4.887751167042073e-07  2.134038246552372e-08)
 ( 0.000000000000000e+00 -4.887751167042073e-07 -2.134038246552372e-08)
 ( 0.000000000000000e+00 -5.101944174824318e-07  2.227556933394202e-08)
 ( 0.000000000000000e+00 -5.101944174824318e-07 -2.227556933394202e-08)
 ( 0.000000000000000e+00 -5.325664639716707e-07  2.325235397845526e-08)
 ( 0.000000000000000e+00 -5.325664639716707e-07 -2.325235397845526e-08)
 ( 0.000000000000000e+00 -5.558350126990756e-07  2.426828075600641e-08)
 ( 0.000000000000000e+00 -5.558350126990756e-07 -2.426828075600641e-08)
 ( 0.000000000000000e+00 -5.800796506991978e-07  2.532682451156729e-08)
 ( 0.000000000000000e+00 -5.800796506991978e-07 -2.532682451156729e-08)
 ( 0.000000000000000e+00 -6.054874136247700e-07  2.643615139809371e-08)
 ( 0.000000000000000e+00 -6.054874136247700e-07 -2.643615139809371e-08)
 ( 0.000000000000000e+00 -6.325886674328739e-07  2.761941769335843e-08)
 ( 0.000000000000000e+00 -6.325886674328739e-07 -2.761941769335843e-08)
 ( 0.000000000000000e+00 -6.611589271287872e-07  2.886682217082306e-08)
 ( 0.000000000000000e+00 -6.611589271287872e-07 -2.886682217082306e-08)
 ( 0.000000000000000e+00 -6.913590765926349e-07  3.018538917239264e-08)
 ( 0.000000000000000e+00 -6.913590765926349e-07 -3.018538917239264e-08)
 ( 0.000000000000000e+00 -7.233574933578806e-07  3.158247021994281e-08)
 ( 0.000000000000000e+00 -7.233574933578806e-07 -3.158247021994281e-08)
 ( 0.000000000000000e+00 -7.582324929207993e-07  3.310514558479379e-08)
 ( 0.000000000000000e+00 -7.582324929207993e-07 -3.310514558479379e-08)
 ( 0.000000000000000e+00 -7.958261465650749e-07  3.474651995027889e-08)
 ( 0.000000000000000e+00 -7.958261465650749e-07 -3.474651995027889e-08)
 ( 0.000000000000000e+00 -8.362863172042898e-07  3.651304915062630e-08)
 ( 0.000000000000000e+00 -8.362863172042898e-07 -3.651304915062630e-08)
 ( 0.000000000000000e+00 -8.799182181883195e-07  3.841805908847988e-08)
 ( 0.000000000000000e+00 -8.799182181883195e-07 -3.841805908847988e-08)
 ( 0.000000000000000e+00 -9.279348066464273e-07  4.051450861581084e-08)
 ( 0.000000000000000e+00 -9.279348066464273e-07 -4.051450861581084e-08)
 ( 0.000000000000000e+00 -9.812731697060958e-07  4.284331184019252e-08)
 ( 0.000000000000000e+00 -9.812731697060958e-07 -4.284331184019252e-08)
 ( 0.000000000000000e+00 -1.039670858136897e-06  4.539300998075881e-08)
 ( 0.000000000000000e+00 -1.039670858136897e-06 -4.539300998075881e-08)
 ( 0.000000000000000e+00 -1.103682523119094e-06  4.818781963102531e-08)
 ( 0.000000000000000e+00 -1.103682523119094e-06 -4.818781963102531e-08)
 ( 0.000000000000000e+00 -1.174392125699390e-06  5.127506755236719e-08)
 ( 0.000000000000000e+00 -1.174392125699390e-06 -5.127506755236719e-08)
 ( 0.000000000000000e+00 -1.255367320607280e-06  5.481052091424620e-08)
 ( 0.000000000000000e+00 -1.255367320607280e-06 -5.481052091424620e-08)
 ( 0.000000000000000e+00 -1.345250843466864e-06  5.873492027423444e-08)
 ( 0.000000000000000e+00 -1.345250843466864e-06 -5.873492027423444e-08)
 ( 0.000000000000000e+00 -1.445036705690635e-06  6.309166510786316e-08)
 ( 0.000000000000000e+00 -1.445036705690635e-06 -6.309166510786316e-08)
 ( 0.000000000000000e+00 -1.555752001593742e-06  6.792559932138774e-08)
 ( 0.000000000000000e+00 -1.555752001593742e-06 -6.792559932138774e-08)
 ( 0.000000000000000e+00 -1.684014737070008e-06  7.352567129230657e-08)
 ( 0.000000000000000e+00 -1.684014737070008e-06 -7.352567129230657e-08)
 ( 0.000000000000000e+00 -1.828743441013168e-06  7.984466297239181e-08)
 ( 0.000000000000000e+00 -1.828743441013168e-06 -7.984466297239181e-08)
 ( 0.000000000000000e+00 -1.990767524163658e-06  8.691878721662940e-08)
 ( 0.000000000000000e+00 -1.990767524163658e-06 -8.691878721662940e-08)
 ( 0.000000000000000e+00 -2.172082275843511e-06  9.483516023819445e-08)
 ( 0.000000000000000e+00 -2.172082275843511e-06 -9.483516023819445e-08)
 ( 0.000000000000000e+00 -2.381962727054400e-06  1.039987386361258e-07)
 ( 0.000000000000000e+00 -2.381962727054400e-06 -1.039987386361258e-07)
 ( 0.000000000000000e+00 -2.641896602539293e-06  1.153476967336601e-07)
 ( 0.000000000000000e+00 -2.641896602539293e-06 -1.153476967336601e-07)
 ( 0.000000000000000e+00 -2.961739003800879e-06  1.293123175548636e-07)
 ( 0.000000000000000e+00 -2.961739003800879e-06 -1.293123175548636e-07)
 ( 0.000000000000000e+00 -3.355973653321074e-06  1.465249740801220e-07)
 ( 0.000000000000000e+00 -3.355973653321074e-06 -1.465249740801220e-07)
 ( 0.000000000000000e+00 -3.855558503693142e-06  1.683373197101745e-07)
 ( 0.000000000000000e+00 -3.855558503693142e-06 -1.683373197101745e-07)
 ( 0.000000000000000e+00 -4.506561050914297e-06  1.967607047576932e-07)
 ( 0.000000000000000e+00 -4.506561050914297e-06 -1.967607047576932e-07)
 ( 0.000000000000000e+00 -5.279989753336785e-06  2.305293311779660e-07)
 ( 0.000000000000000e+00 -5.279989753336785e-06 -2.305293311779660e-07)
 ( 0.000000000000000e+00 -6.177356108143686e-06  2.697091923632098e-07)
 ( 0.000000000000000e+00 -6.177356108143686e-06 -2.697091923632098e-07)
 ( 0.000000000000000e+00 -7.209385323050621e-06  3.147685609951780e-07)
 ( 0.000000000000000e+00 -7.209385323050621e-06 -3.147685609951780e-07)
 ( 0.000000000000000e+00 -8.417232931791608e-06  3.675043264826010e-07)
 ( 0.000000000000000e+00 -8.417232931791608e-06 -3.675043264826010e-07)
 ( 0.000000000000000e+00 -9.745372797589129e-06  4.254921653377054e-07)
 ( 0.000000000000000e+00 -9.745372797589129e-06 -4.254921653377054e-07)
 ( 0.000000000000000e+00 -1.118806180255209e-05  4.884813276181315e-07)
 ( 0.000000000000000e+00 -1.118806180255209e-05 -4.884813276181315e-07)
 ( 0.000000000000000e+00 -1.274980301243558e-05  5.566684214207248e-07)
 ( 0.000000000000000e+00 -1.274980301243558e-05 -5.566684214207248e-07)
 ( 0.000000000000000e+00 -1.444051743656351e-05  6.304866073671724e-07)
 ( 0.000000000000000e+00 -1.444051743656351e-05 -6.304866073671724e-07)
 ( 0.000000000000000e+00 -1.620131634364966e-05  7.073647479228311e-07)
 ( 0.000000000000000e+00 -1.620131634364966e-05 -7.073647479228311e-07)
 ( 0.000000000000000e+00 -1.802003977692016e-05  7.867719279092276e-07)
 ( 0.000000000000000e+00 -1.802003977692016e-05 -7.867719279092276e-07)
 ( 0.000000000000000e+00 -1.988899573228206e-05  8.683723071748072e-07)
 ( 0.000000000000000e+00 -1.988899573228206e-05 -8.683723071748072e-07)
 ( 0.000000000000000e+00 -2.177302969782368e-05  9.506310065820175e-07)
 ( 0.000000000000000e+00 -2.177302969782368e-05 -9.506310065820175e-07)
 ( 0.000000000000000e+00 -2.364494824999685e-05  1.032360735617835e-06)
 ( 0.000000000000000e+00 -2.364494824999685e-05 -1.032360735617835e-06)
 ( 0.000000000000000e+00 -2.549230758802822e-05  1.113018186207129e-06)
 ( 0.000000000000000e+00 -2.549230758802822e-05 -1.113018186207129e-06)
 ( 0.000000000000000e+00 -2.727536790487832e-05  1.190868280903555e-06)
 ( 0.000000000000000e+00 -2.727536790487832e-05 -1.190868280903555e-06)
 ( 0.000000000000000e+00 -2.896435781393032e-05  1.264611172895727e-06)
 ( 0.000000000000000e+00 -2.896435781393032e-05 -1.264611172895727e-06)
 ( 0.000000000000000e+00 -3.056177252273116e-05  1.334355805297898e-06)
 ( 0.000000000000000e+00 -3.056177252273116e-05 -1.334355805297898e-06)
 ( 0.000000000000000e+00 -3.205800614736199e-05  1.399682776160701e-06)
 ( 0.000000000000000e+00 -3.205800614736199e-05 -1.399682776160701e-06)
 ( 0.000000000000000e+00 -3.336127409878745e-05  1.456584683782381e-06)
 ( 0.000000000000000e+00 -3.336127409878745e-05 -1.456584683782381e-06)
 ( 0.000000000000000e+00 -3.452303478997638e-05  1.507308250993734e-06)
 ( 0.000000000000000e+00 -3.452303478997638e-05 -1.507308250993734e-06)
 ( 0.000000000000000e+00 -3.554376942268782e-05  1.551874487517290e-06)
 ( 0.000000000000000e+00 -3.554376942268782e-05 -1.551874487517290e-06)
 ( 0.000000000000000e+00 -3.638664723084068e-05  1.588675327377903e-06)
 ( 0.000000000000000e+00 -3.638664723084068e-05 -1.588675327377903e-06)
 ( 0.000000000000000e+00 -3.701905823638146e-05  1.616286988185534e-06)
 ( 0.000000000000000e+00 -3.701905823638146e-05 -1.616286988185534e-06)
 ( 0.000000000000000e+00 -3.750821846266529e-05  1.637644184898427e-06)
 ( 0.000000000000000e+00 -3.750821846266529e-05 -1.637644184898427e-06)
 ( 0.000000000000000e+00 -3.785946029114385e-05  1.652979734318711e-06)
 ( 0.000000000000000e+00 -3.785946029114385e-05 -1.652979734318711e-06)
 ( 0.000000000000000e+00 -3.802690797935553e-05  1.660290658273883e-06)
 ( 0.000000000000000e+00 -3.802690797935553e-05 -1.660290658273883e-06)
 ( 0.000000000000000e+00 -3.809387773026116e-05  1.663214620744771e-06)
 ( 0.000000000000000e+00 -3.809387773026116e-05 -1.663214620744771e-06)
 ( 0.000000000000000e+00 -3.808666755391596e-05  1.662899817647003e-06)
 ( 0.000000000000000e+00 -3.808666755391596e-05 -1.662899817647003e-06)
 ( 0.000000000000000e+00 -3.800774329405538e-05  1.659453910043134e-06)
 ( 0.000000000000000e+00 -3.800774329405538e-05 -1.659453910043134e-06)
 ( 0.000000000000000e+00 -3.788156436685417e-05  1.653944819106345e-06)
 ( 0.000000000000000e+00 -3.788156436685417e-05 -1.653944819106345e-06)
 ( 0.000000000000000e+00 -3.773441560072867e-05  1.647520165229481e-06)
 ( 0.000000000000000e+00 -3.773441560072867e-05 -1.647520165229481e-06)
 ( 0.000000000000000e+00 -3.757033004787510e-05  1.640356035274230e-06)
 ( 0.000000000000000e+00 -3.757033004787510e-05 -1.640356035274230e-06)
 ( 0.000000000000000e+00 -3.739329652475660e-05  1.632626584728461e-06)
 ( 0.000000000000000e+00 -3.739329652475660e-05 -1.632626584728461e-06)
 ( 0.000000000000000e+00 -3.721432540427920e-05  1.624812536855024e-06)
 ( 0.000000000000000e+00 -3.721432540427920e-05 -1.624812536855024e-06)
 ( 0.000000000000000e+00 -3.703443221515611e-05  1.616958230595091e-06)
 ( 0.000000000000000e+00 -3.703443221515611e-05 -1.616958230595091e-06)
 ( 0.000000000000000e+00 -3.685826568761760e-05  1.609266633893841e-06)
 ( 0.000000000000000e+00 -3.685826568761760e-05 -1.609266633893841e-06)
 ( 0.000000000000000e+00 -3.669051754984868e-05  1.601942592027703e-06)
 ( 0.000000000000000e+00 -3.669051754984868e-05 -1.601942592027703e-06)
 ( 0.000000000000000e+00 -3.653459160580159e-05  1.595134718286707e-06)
 ( 0.000000000000000e+00 -3.653459160580159e-05 -1.595134718286707e-06)
 ( 0.000000000000000e+00 -3.640328882882242e-05  1.589401915237291e-06)
 ( 0.000000000000000e+00 -3.640328882882242e-05 -1.589401915237291e-06));
    }
    back
    {
        type            wedge;
    }
    front
    {
        type            wedge;
    }
}

// ************************************************************************* //
