
            FoamFile
            {
                 version   2.0;c
                 format    ascii;
                 class     vectorField;
                 object    traction;
            }
            //*************************************************************************//
12
(
(0 0 0 )
(0 0 0 )
(0 0 0 )
(0 0 0 )
(0 0 0 )
(0 0 0 )
(0 0 0 )
(0 0 0 )
(0 0 0 )
(0 0 0 )
(0 0 0 )
(0 0 0 )
)