/*--------------------------------*- C++ -*----------------------------------*\
  =========                 |
  \\      /  F ield         | OpenFOAM: The Open Source CFD Toolbox
   \\    /   O peration     | Website:  https://openfoam.org
    \\  /    A nd           | Version:  11
     \\/     M anipulation  |
\*---------------------------------------------------------------------------*/
FoamFile
{
    format      ascii;
    class       pointVectorField;
    object      pointDisplacement;
}
// * * * * * * * * * * * * * * * * * * * * * * * * * * * * * * * * * * * * * //

dimensions      [0 1 0 0 0 0 0];

internalField   uniform (0 0 0);

boundaryField
{
    fixedWalls
    {
        type            slip;
    }

    bottom
    {
        type            fixedValue;
        value           uniform (0 0 0);
    }

    inlet
    {
        type            slip;
    }

    topInlet
    {
        type            fixedValue;
        value           uniform (0 0 0);
    }

    outlet
    {
        type            slip;
    }

    frontAndBack
    {
        type            empty;
    }
}


// ************************************************************************* //
