
            FoamFile
            {
                 version   2.0;
                 format    ascii;
                 class     scalarField;
                 object    pressure;
            }
            //*************************************************************************//
12
(
0
0
0
0
0
0
0
0
0
0
0
0
)