/*--------------------------------*- C++ -*----------------------------------*\
  =========                 |
  \\      /  F ield         | OpenFOAM: The Open Source CFD Toolbox
   \\    /   O peration     | Website:  https://openfoam.org
    \\  /    A nd           | Version:  11
     \\/     M anipulation  |
\*---------------------------------------------------------------------------*/
FoamFile
{
    format      ascii;
    class       dictionary;
    location    "system";
    object      fvSolution;
}
// * * * * * * * * * * * * * * * * * * * * * * * * * * * * * * * * * * * * * //


solvers
{
    "p|pFinal"
    {
        solver          GAMG;
        smoother        DICGaussSeidel;
        tolerance       1e-6;
        relTol          0;
    }

    "pcorr|pcorrFinal"
    {
        $p;
        tolerance       1e-2;
    }

    "U|UFinal"
    {
        solver          PBiCGStab;
        preconditioner  DILU;
        tolerance       1e-6;
        relTol          0;
    }

    cellDisplacement
    {
        solver          GAMG;
        smoother        GaussSeidel;
        tolerance       1e-6;
        relTol          1;
    }
}

PIMPLE
{
    nOuterCorrectors    50;
    nCorrectors         2;
    nNonOrthogonalCorrectors 1;
    outerCorrectorResidualControl
    {
        p
        {
             tolerance  1e-4;
             relTol     0;
        }
        U
        {
             tolerance  1e-4;
             relTol     0;
        }
    }
}

// ************************************************************************* //
