/*--------------------------------*- C++ -*----------------------------------*\
| =========                 |                                                 |
| \\      /  F ield         | OpenFOAM: The Open Source CFD Toolbox           |
|  \\    /   O peration     | Version:  4.1                                   |
|   \\  /    A nd           | Web:      www.OpenFOAM.org                      |
|    \\/     M anipulation  |                                                 |
\*---------------------------------------------------------------------------*/
FoamFile
{
    version     2.0;
    format      ascii;
    class       polyBoundaryMesh;
    location    "constant/polyMesh";
    object      boundary;
}
// * * * * * * * * * * * * * * * * * * * * * * * * * * * * * * * * * * * * * //

8
(
    dieWall
    {
        type            wall;
        inGroups        1(wall);
        nFaces          105;
        startFace       104;
    }
    outlet
    {
        type            patch;
        nFaces          1;
        startFace       209;
    }
    upWire
    {
        type            wall;
        inGroups        1(wall);
        nFaces          30;
        startFace       210;
    }
    deformWire
    {
        type            wall;
        inGroups        1(wall);
        nFaces          60;
        startFace       240;
    }
    finalWire
    {
        type            wall;
        inGroups        1(wall);
        nFaces          15;
        startFace       300;
    }
    inlet
    {
        type            patch;
        nFaces          1;
        startFace       315;
    }
    back
    {
        type            wedge;
        inGroups        1(wedge);
        nFaces          105;
        startFace       316;
    }
    front
    {
        type            wedge;
        inGroups        1(wedge);
        nFaces          105;
        startFace       421;
    }
)

// ************************************************************************* //
