/*--------------------------------*- C++ -*----------------------------------*\
| =========                 |                                                 |
| \\      /  F ield         | foam-extend: Open Source CFD                    |
|  \\    /   O peration     | Version:  3.0                                   |
|   \\  /    A nd           | Web:         http://www.extend-project.de       |
|    \\/     M anipulation  |                                                 |
\*---------------------------------------------------------------------------*/
FoamFile
{
    version     2.0;
    format      ascii;
    class       volVectorField;
    location    "0";
    object      DU;
}
// * * * * * * * * * * * * * * * * * * * * * * * * * * * * * * * * * * * * * //

dimensions      [0 1 0 0 0 0 0];

internalField   uniform ( 0 0 0 );

boundaryField
{
// wire
    wireUpstream
    {
        type            fixedDisplacementZeroShear;
	displacementSeries
	{
		fileName	"$FOAM_CASE/constant/timeVsDisp";
                outOfBounds     clamp;
         
	}
        value		uniform (0 0 0 ); 
    }

    wireDownstream
    {
        type            solidTraction;
        traction        uniform ( 0 0 0 );
        pressure	uniform -6e7;
        value           uniform (0 0 0);
    }

    wireTopContact
    {
        type           	timeVaryingMappedSolidTraction;
        traction	uniform (0 0 0 );
	presure		uniform 0.0;
	value		uniform (0 0 0 );
	findSampleTimeMultiple	false;
    }


    front
    {
       type          solidWedge;
        patchType     wedge;
        value         uniform (0 0 0);
    }

    back
    {
       type          solidWedge;
        patchType     wedge;
        value         uniform (0 0 0);
    }


}


// ************************************************************************* //
