/*--------------------------------*- C++ -*----------------------------------*\
| =========                 |                                                 |
| \\      /  F ield         | OpenFOAM Extend Project: Open Source CFD        |
|  \\    /   O peration     | Version:  1.6-ext                               |
|   \\  /    A nd           | Web:      www.extend-project.de                 |
|    \\/     M anipulation  |                                                 |
\*---------------------------------------------------------------------------*/
FoamFile
{
    version     2.0;
    format      ascii;
    class       dictionary;
    location    "system";
    object      controlDict;
}
// * * * * * * * * * * * * * * * * * * * * * * * * * * * * * * * * * * * * * //

application     plasticNonLinSolidFoam;

startFrom       startTime;

startTime       0;

stopAt          endTime;

endTime         0.000001;

deltaT          0.000003;

writeControl    timeStep;

writeInterval   1;

cycleWrite      0;

writeFormat     ascii;

writePrecision  6;

writeCompression uncompressed; 

timeFormat      fixed;

timePrecision   6;

runTimeModifiable no;

adjustTimeStep  no;

// ************************************************************************* //
