/*--------------------------------*- C++ -*----------------------------------*\
| =========                 |                                                 |
| \\      /  F ield         | foam-extend: Open Source CFD                    |
|  \\    /   O peration     | Version:     4.1-20200408                       |
|   \\  /    A nd           | Web:         http://www.foam-extend.org         |
|    \\/     M anipulation  |                                                 |
\*---------------------------------------------------------------------------*/
FoamFile
{
    version     2.0;
    format      ascii;
    class       polyBoundaryMesh;
    location    "constant/polyMesh";
    object      boundary;
}
// * * * * * * * * * * * * * * * * * * * * * * * * * * * * * * * * * * * * * //

5
(
    wireDownstream
    {
        type            patch;
        physicalType    patch;
        nFaces          1;
        startFace       5;
    }
    wireUpstream
    {
        type            patch;
        physicalType    patch;
        nFaces          1;
        startFace       6;
    }
    wireTopContact
    {
        type            patch;
        physicalType    patch;
        nFaces          6;
        startFace       7;
    }
    front
    {
        type            wedge;
        nFaces          6;
        startFace       13;
    }
    back
    {
        type            wedge;
        nFaces          6;
        startFace       19;
    }
)


// ************************************************************************* //
