/*--------------------------------*- C++ -*----------------------------------*\
| =========                 |                                                 |
| \\      /  F ield         | OpenFOAM: The Open Source CFD Toolbox           |
|  \\    /   O peration     | Version:  11                                    |
|   \\  /    A nd           | Web:      www.OpenFOAM.org                      |
|    \\/     M anipulation  |                                                 |
\*---------------------------------------------------------------------------*/
FoamFile
{
    format      ascii;
    class       dictionary;
    location    "system";
    object      fvSolution;
}
// * * * * * * * * * * * * * * * * * * * * * * * * * * * * * * * * * * * * * //

solvers
{
    "p|pcorr"
    {
        solver          GAMG;
        smoother        GaussSeidel;
        tolerance       1e-12;
        relTol          1e-9;
    }

    "pFinal|pcorrFinal"
    {
        $p;
        relTol          0;
    }

    "U|UFinal"
    {
        solver          smoothSolver;
        smoother        GaussSeidel;
        tolerance       1e-12;
        relTol          0;
    }
    
   cellDisplacement
    {
        solver          GAMG;
        smoother        GaussSeidel;
        tolerance       1e-12;
        relTol          1e-9;
    }

}

PIMPLE
{ 
    nOuterCorrectors    100;
    nNonOrthogonalCorrectors 0;
    nCorrectors         3;
    outerCorrectorResidualControl
    {
        p
        {
            tolerance   1e-9;
            relTol      0;
        }

        U
        {
            tolerance   1e-9;
            relTol      0;
        }
    }
}

// ************************************************************************* //
